/*--------------------------------*- C++ -*----------------------------------*\
| =========                 |                                                 |
| \\      /  F ield         | OpenFOAM: The Open Source CFD Toolbox           |
|  \\    /   O peration     | Version:  2306                                  |
|   \\  /    A nd           | Website:  www.openfoam.com                      |
|    \\/     M anipulation  |                                                 |
\*---------------------------------------------------------------------------*/
FoamFile
{
    version     2.0;
    format      ascii;
    arch        "LSB;label=32;scalar=64";
    class       scalarListList;
    location    "constant/exterior";
    object      F;
}
// * * * * * * * * * * * * * * * * * * * * * * * * * * * * * * * * * * * * * //


204
(

20
(
0.01208262
0.01502648
0.01281618
0.01430935
0.01137472
0.01356416
0.01567966
0.009459674
0.01667589
0.0156461
0.01222286
0.002048527
0.005974602
0.009430296
0.01428383
0.01640392
0.01657981
0.01621945
0.01069941
0.01006051
)


20
(
0.01208262
0.01502648
0.01281618
0.01430935
0.01069941
0.01006051
0.01137472
0.01356416
0.01567966
0.009459674
0.01667589
0.0156461
0.01222286
0.002048527
0.01621945
0.01657981
0.01640392
0.01428383
0.009430296
0.005974602
)


20
(
0.006836352
0.01105042
0.007644823
0.009716355
0.00554704
0.005029948
0.006143791
0.008594327
0.01264603
0.004579478
0.01968998
0.0272013
0.03793094
0.0601288
0.0145648
0.01688248
0.0230921
0.03212327
0.04462725
0.05210568
)


20
(
0.006836352
0.01105042
0.007644823
0.009716355
0.006143791
0.008594327
0.01264603
0.004579478
0.01968998
0.0272013
0.03793094
0.0601288
0.05210568
0.04462725
0.03212327
0.0230921
0.01688248
0.0145648
0.00554704
0.005029948
)

8(0 0.00097619 0.0007377733 0.0001638231 0.001185368 1.017035e-15 0.0004677538 0.001367669)
6(0.0001638231 0.001367669 0.00097619 0.0007377733 0.001185368 0.0004677538)
2(0.09404497 0.0532107)
2(0.09404497 0.0532107)
2(0.1169585 0.0860109)
2(0.1169585 0.0860109)
2(0.09975466 0.05950344)
2(0.09975466 0.05950344)
1(9.753619e-13)

20
(
0.1302861
0.03256597
0.01414509
0.007852792
0.0004211695
0.00498494
0.003442723
0.002519335
0.001923115
0.0003754659
0.001515965
0.001225644
0.0004757556
0.001011383
0.0003368172
0.0008487601
0.0007224241
0.0006223305
0.0005416844
0.0003038426
)

2(0.1113768 0.07562719)
7(5.085175e-16 0.01313358 0.0211784 0.08639586 0.00889276 0.03892009 0.006404355)
2(0.1113768 0.07562719)
0()
6(0.0939816 0.01994769 0.03841879 0.005734468 0.008043602 0.01206239)
2(0.08327881 0.04317535)
0()
1(0)

20
(
0.0002642831
0.1393757
0.03062241
0.01285799
0.007034688
0.004429684
0.003043651
0.0002930644
0.0003268169
0.0003667552
0.002219468
0.0004144887
0.00168986
0.001073216
0.001329484
0.0006305977
0.0008844977
0.0007415145
0.0004721866
0.0005428286
)

6(0.01994769 0.03841879 0.0939816 0.01206239 0.008043602 0.005734468)
2(0.07830592 0.03915057)
0()

13
(
0.08639586
0.006404355
0
0
0.01313358
2.03407e-15
1.017035e-15
0.0211784
0.00889276
0
2.03407e-15
0
0.03892009
)

6(0.01898214 0.01198917 0.01919368 0.02433453 0.01507052 0.02849363)
6(0.00118458 0.0009012468 0.0002025864 0.001428761 0.0005751107 0.001637403)

20
(
0.002206355
0.01033165
0.0193412
0.01964648
0.01742314
0.01483249
0.01250334
0.002409479
0.002641495
0.002908026
0.01055985
0.003216088
0.008976028
0.006645443
0.007691224
0.004490258
0.005788405
0.005080301
0.003574503
0.00399446
)

6(0.01919368 0.02433453 0.01898214 0.01507052 0.02849363 0.01198917)
7(0.007970377 0 0.01217841 0.01587099 0.01706568 0.01402683 0.01584687)
6(0.01587099 0.01706568 0.007970377 0.01402683 0.01584687 0.01217841)
7(0.02555444 0.03207047 0.02349139 0.01927355 0.01468328 1.375133e-15 0.01143422)
7(0.02349139 0 0.02555444 0.03207047 0.01143422 0.01468328 0.01927355)
0()
0()
0()
0()
0()
0()
6(0.01020353 0.01927269 0.0190023 0.01232658 0.01459164 0.01710763)
6(0.0009692983 0.0006204609 0.0002191762 0.001270011 0.001526972 0.001744477)
6(0.004360644 0.01080021 0.01218343 0.01186717 0.01166362 0.009786382)
6(0.01218343 0.01186717 0.004360644 0.01166362 0.009786382 0.01080021)
6(0.01927269 0.0190023 0.01020353 0.01710763 0.01459164 0.01232658)
7(5.085175e-16 0.009368079 0.008566722 0.002745861 0.009473935 0.006587546 0.009194322)
6(0.002745861 0.009194322 0.009368079 0.008566722 0.009473935 0.006587546)
7(0 0.01398864 0.01211178 0.005664594 0.01377206 0.01273335 0.01145744)
8(0.005664594 0 0.01398864 0.01211178 1.375133e-15 0.01145744 0.01273335 0.01377206)
0()
6(0.00131319 0.0008508371 0.0003038097 0.001699357 0.002017807 0.002276691)
6(0.0003038097 0.00131319 0.0008508371 0.002276691 0.002017807 0.001699357)
6(0.003595875 0.01037563 0.008304669 0.0101128 0.01071346 0.01093915)
6(0.01037563 0.008304669 0.003595875 0.01093915 0.01071346 0.0101128)
9(0.0024834 0 0 0.007925607 0.006022823 0 0.008766323 0.008952835 0.008764164)
6(0.007925607 0.006022823 0.0024834 0.008764164 0.008952835 0.008766323)
0()
7(0 0.006221864 0.004558362 0.001817317 0.007123241 0.007511408 0.007567716)
8(0.001817317 0 0 0.006221864 0.004558362 0.007567716 0.007511408 0.007123241)
10(0 0 0.007334208 0.006424737 0.00188669 0.007712563 0 0.004720658 0 0.00775054)
0()
9(0.00188669 0.00775054 0 0.007334208 0 0.006424737 0.007712563 0.004720658 0)
6(0.000181664 0.001493581 0.00107288 0.0008134028 0.001298637 0.0005172841)
7(0.0002025864 0.001637403 0 0.00118458 0.0009012468 0.001428761 0.0005751107)
7(0.0002273432 0 0.00180262 0.001314538 0.001004074 0.001579206 0.0006431931)
7(0 0.001314538 0.001004074 0.0002273432 0.001579206 0.0006431931 0.00180262)
6(0.005000858 0.003566104 0.001387235 0.005877535 0.006352084 0.006546065)
6(0.001387235 0.005000858 0.003566104 0.006546065 0.006352084 0.005877535)
0()
10(0.0002708415 0 0 0.001180699 0.0007615525 0 0.002075591 0 0.001831102 0.001534977)
8(0.001180699 0.0007615525 0.0002708415 0.001534977 0.001831102 0 0 0.002075591)
6(0.001093538 0.004100604 0.002864124 0.005689114 0.005420697 0.004918942)
6(0.004100604 0.002864124 0.001093538 0.004918942 0.005420697 0.005689114)

20
(
0.001574812
0.02118738
0.03096367
0.02560343
0.01965458
0.01511279
0.01183171
0.001730794
0.001910991
0.002120643
0.009453942
0.002366475
0.007699853
0.005363148
0.006378642
0.003423335
0.004568006
0.003934932
0.002657223
0.003004387
)


20
(
0.001574812
0.02118738
0.001910991
0.03096367
0.02560343
0.01965458
0.01511279
0.01183171
0.002120643
0.009453942
0.001730794
0.002366475
0.007699853
0.006378642
0.003934932
0.003423335
0.003004387
0.002657223
0.005363148
0.004568006
)


20
(
0.02765383
0.03542658
0.001343756
0.02671808
0.0193927
0.001820498
0.01438392
0.01098741
0.00862548
0.006932778
0.001636824
0.005684741
0.002036728
0.004741053
0.001479508
0.004011613
0.00343687
0.002976383
0.002601988
0.002293628
)


20
(
0.02765383
0.03542658
0.02671808
0.0193927
0.001820498
0.01438392
0.01098741
0.00862548
0.006932778
0.001636824
0.005684741
0.004741053
0.002036728
0.004011613
0.001479508
0.00343687
0.002976383
0.002601988
0.002293628
0.001343756
)

6(0.001469164 0.0009567642 0.0003431853 0.001891302 0.002233994 0.002507559)

20
(
0.05326065
0.04445987
0.02634323
0.01679078
0.001179531
0.01151291
0.008349547
0.006319338
0.004943753
0.001055754
0.003970586
0.003257653
0.001326379
0.002720162
0.0009504629
0.002305118
0.001978064
0.001715834
0.001502398
0.0008601559
)

6(0.001375798 0.006545811 0.005860284 0.004977744 0.00634314 0.003543105)
6(0.005860284 0.004977744 0.001375798 0.00634314 0.003543105 0.006545811)

20
(
0.05326065
0.04445987
0.0008601559
0.02634323
0.01679078
0.001179531
0.01151291
0.008349547
0.006319338
0.004943753
0.001055754
0.003970586
0.001326379
0.003257653
0.0009504629
0.002720162
0.002305118
0.001978064
0.001715834
0.001502398
)

7(0.0008841154 0 0.003419889 0.00234986 0.004973235 0.004668194 0.004169848)
6(0.003419889 0.00234986 0.0008841154 0.004169848 0.004668194 0.004973235)
6(0.0003431853 0.001469164 0.0009567642 0.002507559 0.002233994 0.001891302)
0()

20
(
0.1302861
0.03256597
0.0003038426
0.01414509
0.007852792
0.0004211695
0.00498494
0.003442723
0.002519335
0.001923115
0.0003754659
0.001515965
0.0004757556
0.001225644
0.0003368172
0.001011383
0.0008487601
0.0007224241
0.0006223305
0.0005416844
)

6(0.00107288 0.0008134028 0.000181664 0.001298637 0.0005172841 0.001493581)
0()

20
(
0.01672231
0.02671927
0.001760639
0.02371661
0.01909245
0.002355849
0.01516514
0.01214992
0.009875076
0.008148131
0.002127965
0.006819216
0.002621945
0.005780734
0.001931374
0.004956805
0.004293743
0.003753137
0.003307117
0.002935163
)

6(0.001466924 0.001125479 0.0002569322 0.001754362 0.0007241045 0.00199358)
9(0.0002569322 2.03407e-15 0.00199358 0 0.001466924 0.001125479 0.001754362 0 0.0007241045)
6(0.0007295585 0.002893718 0.001962149 0.004374243 0.004055113 0.003575519)
6(0.004772964 0.003961771 0.001047506 0.00528136 0.002754878 0.005564037)
7(0.001047506 1.017035e-15 0.005564037 0.004772964 0.003961771 0.00528136 0.002754878)
6(0.001067221 0.0006856025 0.0002429623 0.001393168 0.001668833 0.001899481)
6(0.0002429623 0.001067221 0.0006856025 0.001899481 0.001668833 0.001393168)

20
(
0.01115099
0.02035569
0.002116868
0.02022865
0.01765247
0.002797322
0.01485226
0.01241147
0.0104132
0.008806007
0.002538489
0.007514809
0.003097026
0.0064716
0.002313533
0.005621675
0.004922774
0.004342674
0.003856826
0.003446439
)

8(0.0006122512 1.375133e-15 0 0.002479136 0.001662763 0.003870865 0.003550971 0.003097229)
6(0.002893718 0.001962149 0.0007295585 0.003575519 0.004055113 0.004374243)
7(1.375133e-15 0.002479136 0.001662763 0.0006122512 0.003097229 0.003550971 0.003870865)

20
(
0.001190192
0.03416547
0.001453911
0.03925701
0.02753074
0.01914439
0.01382003
0.01036453
0.001619794
0.008030207
0.0013122
0.001815649
0.006391217
0.00520102
0.00309765
0.002673488
0.002330421
0.002049116
0.004311543
0.003630353
)


20
(
0.001190192
0.03416547
0.03925701
0.02753074
0.01914439
0.01382003
0.01036453
0.0013122
0.001453911
0.001619794
0.008030207
0.001815649
0.006391217
0.004311543
0.00520102
0.002673488
0.003630353
0.00309765
0.002049116
0.002330421
)

6(0.000521119 0.00214697 0.001426847 0.003445442 0.003132524 0.00270727)
7(0 0.00214697 0.001426847 0.000521119 0.00270727 0.003132524 0.003445442)
7(0 0.001876906 0.001237692 0.0004489167 0.00238554 0.002782065 0.003083676)
6(0.001654475 0.001083732 0.0003907428 0.002117237 0.002486038 0.002774105)
0()

20
(
0.0002642831
0.1393757
0.0003268169
0.03062241
0.01285799
0.007034688
0.004429684
0.003043651
0.0003667552
0.002219468
0.0002930644
0.0004144887
0.00168986
0.001329484
0.0007415145
0.0006305977
0.0005428286
0.0004721866
0.001073216
0.0008844977
)


20
(
0.007949794
0.01585146
0.01708856
0.01588365
0.003156217
0.01401955
0.01215291
0.01049126
0.009074926
0.002877429
0.007886919
0.006894484
0.003476274
0.006064091
0.002633285
0.005366249
0.004776477
0.004274955
0.003845791
0.002418399
)


20
(
0.007949794
0.01585146
0.002418399
0.01708856
0.01588365
0.003156217
0.01401955
0.01215291
0.01049126
0.009074926
0.002877429
0.007886919
0.003476274
0.006894484
0.002633285
0.006064091
0.005366249
0.004776477
0.004274955
0.003845791
)

6(0.0004489167 0.001876906 0.001237692 0.003083676 0.002782065 0.00238554)
0()

20
(
0.001912262
0.014346
0.0243121
0.02262839
0.01881601
0.01528356
0.01244208
0.002094991
0.002304909
0.00254761
0.0102329
0.002830176
0.008520009
0.006122242
0.007181145
0.004021898
0.005274089
0.004586262
0.003161667
0.003553798
)

7(0.0003907428 0 0.001654475 0.001083732 0.002774105 0.002486038 0.002117237)
7(0.0006652625 0 0.00411936 0.003324494 0.002672628 0.003795039 0.001800123)
6(0.003953976 0.003223995 0.0008241167 0.004451429 0.002202219 0.004767616)
6(0.0008241167 0.004767616 0.003953976 0.003223995 0.004451429 0.002202219)
0()
0()
7(0.0003908933 0.002783409 0.002122048 0 0.001657235 0.002493084 0.001084843)
7(0.0005482801 2.03407e-15 0.003588101 0.002831604 0.002250374 0.003269288 0.001498622)

20
(
0.001912262
0.014346
0.002304909
0.0243121
0.02262839
0.01881601
0.01528356
0.01244208
0.00254761
0.0102329
0.002094991
0.002830176
0.008520009
0.007181145
0.004586262
0.004021898
0.003553798
0.003161667
0.006122242
0.005274089
)

7(0 0.002439175 0.001920163 0.0004596481 0.00284292 0.00126683 0.003149164)
6(0.0004596481 0.003149164 0.002439175 0.001920163 0.00284292 0.00126683)
7(1.017035e-15 0.002122048 0.001657235 0.0003908933 0.002493084 0.001084843 0.002783409)
1(0)
6(0.001862352 0.001444575 0.0003364871 0.002202919 0.0009393726 0.002476075)
0()
6(0.001647152 0.001270201 0.0002926978 0.001959846 0.0008212776 0.002215753)
7(0.0002926978 0 0.002215753 0.001647152 0.001270201 0.001959846 0.0008212776)

20
(
0.0007545909
0.06278676
0.0009277815
0.04596657
0.02556453
0.01578761
0.01062718
0.007615471
0.001037613
0.005715816
0.0008344943
0.001168142
0.004444231
0.003552669
0.002043679
0.001750093
0.001515417
0.001324903
0.002903999
0.00241761
)


20
(
0.0007545909
0.06278676
0.04596657
0.02556453
0.01578761
0.01062718
0.007615471
0.0008344943
0.0009277815
0.001037613
0.005715816
0.001168142
0.004444231
0.002903999
0.003552669
0.001750093
0.00241761
0.002043679
0.001324903
0.001515417
)

1(9.895614e-11)
1(9.895714e-11)

20
(
0.01115099
0.02035569
0.02022865
0.01765247
0.002797322
0.01485226
0.01241147
0.0104132
0.008806007
0.002538489
0.007514809
0.0064716
0.003097026
0.005621675
0.002313533
0.004922774
0.004342674
0.003856826
0.003446439
0.002116868
)

1(9.895748e-11)
1(9.895648e-11)
7(0 0.003324494 0.002672628 0.0006652625 0.003795039 0.001800123 0.00411936)
0()
0()
1(2.224818e-16)
1(2.224818e-16)
0()
0()
0()
1(2.224818e-16)
0()
1(2.224818e-16)
1(2.224818e-16)
1(2.224818e-16)

20
(
0.002206355
0.01033165
0.002641495
0.0193412
0.01964648
0.01742314
0.01483249
0.01250334
0.002908026
0.01055985
0.002409479
0.003216088
0.008976028
0.007691224
0.005080301
0.004490258
0.00399446
0.003574503
0.006645443
0.005788405
)

7(0.0003364871 0.002476075 0 0.001862352 0.001444575 0.002202919 0.0009393726)
0()
0()
0()
0()

20
(
0.01672231
0.02671927
0.02371661
0.01909245
0.002355849
0.01516514
0.01214992
0.009875076
0.008148131
0.002127965
0.006819216
0.005780734
0.002621945
0.004956805
0.001931374
0.004293743
0.003753137
0.003307117
0.002935163
0.001760639
)

0()
6(0.002831604 0.002250374 0.0005482801 0.003269288 0.001498622 0.003588101)
1(2.437515e-12)
1(2.43707e-12)
5(2.43756e-12 1.462625e-12 4.874676e-12 1.462436e-11 9.753802e-13)
1(1.462598e-12)
1(1.462153e-12)
1(4.874585e-12)
1(4.874585e-12)
1(1.462364e-11)
1(1.462409e-11)
5(9.753802e-13 2.437115e-12 1.46218e-12 4.874676e-12 1.462392e-11)
2(0.08853508 0.04782016)
2(0.08853508 0.04782016)
2(0.1055766 0.0668939)
2(0.1055766 0.0668939)
2(0.1220426 0.09843031)
2(0.1220426 0.09843031)
2(0.07362932 0.03564434)
2(0.07362932 0.03564434)
0()
2(0.1297967 0.1532569)
2(0.1297967 0.1532569)
2(0.1217813 0.2117212)
2(0.1217813 0.2117212)
2(0.09513658 0.2952353)
2(0.09513658 0.2952353)
2(0.0159447 0.4680122)
1(9.753619e-13)
6(0.0002191762 0.0009692983 0.0006204609 0.001744477 0.001526972 0.001270011)
2(0.0159447 0.4680122)
2(0.04650328 0.4055642)
2(0.07340065 0.3473559)
2(0.1111781 0.2500313)
2(0.1276798 0.1797372)
2(0.1290489 0.1314047)
2(0.126244 0.1133651)
2(0.08327881 0.04317535)
2(0.07830592 0.03915057)
2(0.126244 0.1133651)
2(0.1290489 0.1314047)
2(0.1276798 0.1797372)
2(0.1111781 0.2500313)
2(0.07340065 0.3473559)
2(0.04650328 0.4055642)
)


// ************************************************************************* //
