/*--------------------------------*- C++ -*----------------------------------*\
| =========                 |                                                 |
| \\      /  F ield         | OpenFOAM: The Open Source CFD Toolbox           |
|  \\    /   O peration     | Version:  2306                                  |
|   \\  /    A nd           | Website:  www.openfoam.com                      |
|    \\/     M anipulation  |                                                 |
\*---------------------------------------------------------------------------*/
FoamFile
{
    version     2.0;
    format      ascii;
    arch        "LSB;label=32;scalar=64";
    class       labelListList;
    location    "constant/exterior";
    object      globalFaceFaces;
}
// * * * * * * * * * * * * * * * * * * * * * * * * * * * * * * * * * * * * * //


204
(

20
(
6
9
11
16
172
173
175
178
180
182
184
186
190
191
192
193
194
195
196
197
)


20
(
7
8
10
14
19
24
171
174
176
177
181
183
185
189
198
199
200
201
202
203
)


20
(
7
8
10
14
19
24
171
174
176
177
181
183
185
189
198
199
200
201
202
203
)


20
(
6
9
11
16
172
173
175
178
180
182
184
186
190
191
192
193
194
195
196
197
)

8(60 75 102 109 123 126 132 152)
6(22 29 74 103 114 133)
2(0 3)
2(1 2)
2(1 2)
2(0 3)
2(1 2)
2(0 3)
1(170)

20
(
18
34
41
49
52
53
55
59
68
70
72
83
85
93
97
99
104
112
115
188
)

2(1 2)
7(46 75 102 109 123 132 152)
2(0 3)
0()
6(13 77 79 110 136 158)
2(1 2)
0()
1(127)

20
(
5
26
27
31
43
47
62
63
64
65
80
92
95
116
118
121
122
125
131
153
)

6(76 82 87 90 98 111)
2(1 2)
0()

13
(
22
29
31
65
74
92
95
103
114
116
122
131
133
)

6(22 29 74 103 114 133)
6(75 102 109 123 132 152)

20
(
5
26
27
31
43
47
62
63
64
65
80
92
95
116
118
121
122
125
131
153
)

6(75 102 109 123 132 152)
7(22 26 29 74 103 114 133)
6(75 102 109 123 132 152)
7(76 82 87 90 98 101 111)
7(13 70 77 79 110 136 158)
0()
0()
0()
0()
0()
0()
6(13 77 79 110 136 158)
6(76 82 87 90 98 111)
6(22 29 74 103 114 133)
6(75 102 109 123 132 152)
6(76 82 87 90 98 111)
7(15 75 102 109 123 132 152)
6(22 29 74 103 114 133)
7(58 76 82 87 90 98 111)
8(13 59 77 79 99 110 136 158)
0()
6(76 82 87 90 98 111)
6(13 77 79 110 136 158)
6(13 77 79 110 136 158)
6(76 82 87 90 98 111)
9(13 59 70 77 79 99 110 136 158)
6(76 82 87 90 98 111)
0()
7(48 76 82 87 90 98 111)
8(13 49 55 77 79 110 136 158)
10(4 66 75 102 109 123 124 132 139 152)
0()
9(22 29 64 74 92 103 114 133 153)
6(22 29 74 103 114 133)
7(22 29 62 74 103 114 133)
7(22 26 29 74 103 114 133)
7(60 75 102 109 123 132 152)
6(76 82 87 90 98 111)
6(13 77 79 110 136 158)
0()
10(13 34 55 77 79 83 110 115 136 158)
8(76 82 87 90 98 105 106 111)
6(13 77 79 110 136 158)
6(76 82 87 90 98 111)

20
(
5
26
27
31
43
47
62
63
64
65
80
92
95
116
118
121
122
125
131
153
)


20
(
4
15
28
30
32
44
46
60
66
81
88
91
94
117
124
126
128
130
139
160
)


20
(
23
33
42
45
48
51
54
56
58
67
71
73
78
84
96
100
101
105
106
107
)


20
(
18
34
41
49
52
53
55
59
68
70
72
83
85
93
97
99
104
112
115
188
)

6(76 82 87 90 98 111)

20
(
18
34
41
49
52
53
55
59
68
70
72
83
85
93
97
99
104
112
115
188
)

6(22 29 74 103 114 133)
6(75 102 109 123 132 152)

20
(
23
33
42
45
48
51
54
56
58
67
71
73
78
84
96
100
101
105
106
107
)

7(13 70 77 79 110 136 158)
6(76 82 87 90 98 111)
6(13 77 79 110 136 158)
0()

20
(
23
33
42
45
48
51
54
56
58
67
71
73
78
84
96
100
101
105
106
107
)

6(75 102 109 123 132 152)
0()

20
(
23
33
42
45
48
51
54
56
58
67
71
73
78
84
96
100
101
105
106
107
)

6(75 102 109 123 132 152)
9(22 26 29 62 74 103 114 121 133)
6(13 77 79 110 136 158)
6(75 102 109 123 132 152)
7(22 26 29 74 103 114 133)
6(76 82 87 90 98 111)
6(13 77 79 110 136 158)

20
(
23
33
42
45
48
51
54
56
58
67
71
73
78
84
96
100
101
105
106
107
)

8(13 49 55 77 79 110 136 158)
6(76 82 87 90 98 111)
7(33 76 82 87 90 98 111)

20
(
4
15
28
30
32
44
46
60
66
81
88
91
94
117
124
126
128
130
139
160
)


20
(
5
26
27
31
43
47
62
63
64
65
80
92
95
116
118
121
122
125
131
153
)

6(13 77 79 110 136 158)
7(71 76 82 87 90 98 111)
7(71 76 82 87 90 98 111)
6(76 82 87 90 98 111)
0()

20
(
4
15
28
30
32
44
46
60
66
81
88
91
94
117
124
126
128
130
139
160
)


20
(
18
34
41
49
52
53
55
59
68
70
72
83
85
93
97
99
104
112
115
188
)


20
(
23
33
42
45
48
51
54
56
58
67
71
73
78
84
96
100
101
105
106
107
)

6(13 77 79 110 136 158)
0()

20
(
5
26
27
31
43
47
62
63
64
65
80
92
95
116
118
121
122
125
131
153
)

7(13 70 77 79 110 136 158)
7(22 26 29 74 103 114 133)
6(75 102 109 123 132 152)
6(22 29 74 103 114 133)
0()
0()
7(22 29 74 92 103 114 133)
7(22 26 29 74 103 114 133)

20
(
4
15
28
30
32
44
46
60
66
81
88
91
94
117
124
126
128
130
139
160
)

7(60 75 102 109 123 132 152)
6(22 29 74 103 114 133)
7(4 75 102 109 123 132 152)
1(21)
6(75 102 109 123 132 152)
0()
6(75 102 109 123 132 152)
7(22 26 29 74 103 114 133)

20
(
4
15
28
30
32
44
46
60
66
81
88
91
94
117
124
126
128
130
139
160
)


20
(
5
26
27
31
43
47
62
63
64
65
80
92
95
116
118
121
122
125
131
153
)

1(138)
1(137)

20
(
18
34
41
49
52
53
55
59
68
70
72
83
85
93
97
99
104
112
115
188
)

1(135)
1(134)
7(60 75 102 109 123 132 152)
0()
0()
1(150)
1(151)
0()
0()
0()
1(149)
0()
1(147)
1(142)
1(143)

20
(
4
15
28
30
32
44
46
60
66
81
88
91
94
117
124
126
128
130
139
160
)

7(22 29 62 74 103 114 133)
0()
0()
0()
0()

20
(
18
34
41
49
52
53
55
59
68
70
72
83
85
93
97
99
104
112
115
188
)

0()
6(75 102 109 123 132 152)
1(163)
1(170)
5(161 164 166 169 187)
1(163)
1(170)
1(163)
1(170)
1(170)
1(163)
5(12 162 165 167 168)
2(1 2)
2(0 3)
2(0 3)
2(1 2)
2(0 3)
2(1 2)
2(1 2)
2(0 3)
0()
2(0 3)
2(1 2)
2(0 3)
2(1 2)
2(0 3)
2(1 2)
2(0 3)
1(163)
6(13 77 79 110 136 158)
2(1 2)
2(0 3)
2(0 3)
2(0 3)
2(0 3)
2(0 3)
2(0 3)
2(0 3)
2(0 3)
2(1 2)
2(1 2)
2(1 2)
2(1 2)
2(1 2)
2(1 2)
)


// ************************************************************************* //
