/*--------------------------------*- C++ -*----------------------------------*\
| =========                 |                                                 |
| \\      /  F ield         | OpenFOAM: The Open Source CFD Toolbox           |
|  \\    /   O peration     | Version:  v2306                                 |
|   \\  /    A nd           | Website:  www.openfoam.com                      |
|    \\/     M anipulation  |                                                 |
\*---------------------------------------------------------------------------*/
FoamFile
{
    version     2.0;
    format      ascii;
    class       volScalarField;
    object      epsilon;
}
// * * * * * * * * * * * * * * * * * * * * * * * * * * * * * * * * * * * * * //

dimensions      [ 0 2 -3 0 0 0 0 ];

internalField   uniform 0.01;

boundaryField
{
    back
    {
        type            empty;
    }

    front
    {
        type            empty;
    }

    interior_to_envelope
    {
        type            epsilonWallFunction;
        value           uniform 0.01;
        inletValue      uniform 0.01;
    }

    interior_to_ground
    {
        type            epsilonWallFunction;
        value           uniform 0.01;
        inletValue      uniform 0.01;
    }
}


// ************************************************************************* //
