/*--------------------------------*- C++ -*----------------------------------*\
| =========                 |                                                 |
| \\      /  F ield         | OpenFOAM: The Open Source CFD Toolbox           |
|  \\    /   O peration     | Version:  v2306                                 |
|   \\  /    A nd           | Website:  www.openfoam.com                      |
|    \\/     M anipulation  |                                                 |
\*---------------------------------------------------------------------------*/
FoamFile
{
    version     2.0;
    format      ascii;
    class       volScalarField;
    object      p;
}
// * * * * * * * * * * * * * * * * * * * * * * * * * * * * * * * * * * * * * //

dimensions      [ 1 -1 -2 0 0 0 0 ];

internalField   uniform 100000;

boundaryField
{
    back
    {
        type            empty;
    }

    front
    {
        type            empty;
    }

    maxX
    {
        type            calculated;
        value           uniform 100000;
    }

    maxZ
    {
        type            calculated;
        value           uniform 100000;
    }

    minX
    {
        type            calculated;
        value           uniform 100000;
    }

    exterior_to_ground
    {
        type            calculated;
        value           uniform 100000;
    }

    exterior_to_envelope
    {
        type            calculated;
        value           uniform 100000;
    }
}


// ************************************************************************* //
