/*--------------------------------*- C++ -*----------------------------------*\
| =========                 |                                                 |
| \\      /  F ield         | OpenFOAM: The Open Source CFD Toolbox           |
|  \\    /   O peration     | Version:  v2306                                 |
|   \\  /    A nd           | Website:  www.openfoam.com                      |
|    \\/     M anipulation  |                                                 |
\*---------------------------------------------------------------------------*/
FoamFile
{
    version     2.0;
    format      ascii;
    class       volVectorField;
    object      U;
}
// * * * * * * * * * * * * * * * * * * * * * * * * * * * * * * * * * * * * * //

dimensions      [ 0 1 -1 0 0 0 0 ];

internalField   uniform ( 0.1 0 0 );

boundaryField
{
    back
    {
        type            empty;
    }

    front
    {
        type            empty;
    }

    maxX
    {
        type            pressureInletOutletVelocity;
        value           uniform ( 0 0 0 );
        phi             phi;
    }

    maxZ
    {
        type            pressureInletOutletVelocity;
        value           uniform ( 0 0 0 );
        phi             phi;
    }

    minX
    {
        type            pressureInletOutletVelocity;
        value           uniform ( 0 0 0 );
        phi             phi;
    }

    exterior_to_ground
    {
        type            fixedValue;
        value           uniform ( 0 0 0 );
        phi             phi;
    }

    exterior_to_envelope
    {
        type            fixedValue;
        value           uniform ( 0 0 0 );
        phi             phi;
    }
}


// ************************************************************************* //
