/*--------------------------------*- C++ -*----------------------------------*\
| =========                 |                                                 |
| \\      /  F ield         | OpenFOAM: The Open Source CFD Toolbox           |
|  \\    /   O peration     | Version:  v2306                                 |
|   \\  /    A nd           | Website:  www.openfoam.com                      |
|    \\/     M anipulation  |                                                 |
\*---------------------------------------------------------------------------*/
FoamFile
{
    version     2.0;
    format      ascii;
    class       volScalarField;
    object      k;
}
// * * * * * * * * * * * * * * * * * * * * * * * * * * * * * * * * * * * * * //

dimensions      [0 2 -2 0 0 0 0];

internalField   uniform 0.1;

boundaryField
{
    "(back|front)"
    {
        type            empty;
    }

    bottom
    {
        type            kqRWallFunction;
        value           uniform 0.1;
    }

    "(south.*|topFace|north.*)"
    {
        type            kqRWallFunction;
        value           uniform 0.1;
    }

    outlet
    {
        type            zeroGradient;
    }

}


// ************************************************************************* //
