/*--------------------------------*- C++ -*----------------------------------*\
| =========                 |                                                 |
| \\      /  F ield         | OpenFOAM: The Open Source CFD Toolbox           |
|  \\    /   O peration     | Version:  v2306                                 |
|   \\  /    A nd           | Website:  www.openfoam.com                      |
|    \\/     M anipulation  |                                                 |
\*---------------------------------------------------------------------------*/
FoamFile
{
    version     2.0;
    format      ascii;
    class       volScalarField;
    object      k;
}
// * * * * * * * * * * * * * * * * * * * * * * * * * * * * * * * * * * * * * //

dimensions      [0 2 -2 0 0 0 0];

internalField   uniform 0.1;

boundaryField
{
    back
    {
        type            empty;
    }

    eastBase
    {
        type            kqRWallFunction;
        value           uniform 0.1;
    }

    westBase
    {
        type            kqRWallFunction;
        value           uniform 0.1;
    }

    bottom
    {
        type            kqRWallFunction;
        value           uniform 0.1;
    }

    front
    {
        type            empty;
    }

    eastSlope
    {
        type            kqRWallFunction;
        value           uniform 0.1;
    }

    eastLedge
    {
        type            kqRWallFunction;
        value           uniform 0.1;
    }

    westLedge
    {
        type            kqRWallFunction;
        value           uniform 0.1;
    }

    westSlope
    {
        type            kqRWallFunction;
        value           uniform 0.1;
    }

    topFace
    {
        type            kqRWallFunction;
        value           uniform 0.1;
    }
}


// ************************************************************************* //
