/*--------------------------------*- C++ -*----------------------------------*\
| =========                 |                                                 |
| \\      /  F ield         | OpenFOAM: The Open Source CFD Toolbox           |
|  \\    /   O peration     | Version:  v2306                                 |
|   \\  /    A nd           | Website:  www.openfoam.com                      |
|    \\/     M anipulation  |                                                 |
\*---------------------------------------------------------------------------*/
FoamFile
{
    version     2.0;
    format      ascii;
    class       volScalarField;
    object      T;
}
// * * * * * * * * * * * * * * * * * * * * * * * * * * * * * * * * * * * * * //

dimensions      [0 0 0 1 0 0 0];

internalField   uniform 300;

// use patchFunctions to provide time-varying boundary conditions
boundaryField
{
    "(back|front)"
    {
        type            empty;
    }

    bottom
    {
        name               customBC_T;
        type			   codedMixed;
        refValue       $internalField;
        refGradient         uniform 0;
        valueFraction       uniform 1; // 0 for heat flux, 1 for temperature
        // code in codeDict: customBC_T
    }

    "(southBelow|northBelow)"
    {
        type            fixedValue;
        value           uniform 295;
    }

    southBase
    {
        type            fixedValue;
        value           uniform 300;
    }

    northBase
    {
        type            fixedValue;
        value           uniform 300;
    }

    "(southSlope1|southSlope2|southSlope3)"
    {
        type            fixedValue;
        value           uniform 305;
    }

    "(northSlope1|northSlope2|northSlope3)"
    {
        type            fixedValue;
        value           uniform 320;
    }

    "(southLedge1|southLedge2)"
    {
        type            fixedValue;
        value           uniform 305;
    }

    "(northLedge1|northLedge2)"
    {
        type            fixedValue;
        value           uniform 315;
    }

    outlet
    {
        type            zeroGradient;
    }

    topFace
    {
        type            fixedValue;
        value           uniform 315;
    }
}


// ************************************************************************* //

