/*--------------------------------*- C++ -*----------------------------------*\
| =========                 |                                                 |
| \\      /  F ield         | OpenFOAM: The Open Source CFD Toolbox           |
|  \\    /   O peration     | Version:  v2306                                 |
|   \\  /    A nd           | Website:  www.openfoam.com                      |
|    \\/     M anipulation  |                                                 |
\*---------------------------------------------------------------------------*/
FoamFile
{
    version     2.0;
    format      ascii;
    class       dictionary;
    object      setFieldsDict;
}
// * * * * * * * * * * * * * * * * * * * * * * * * * * * * * * * * * * * * * //

defaultFieldValues
(
    volScalarFieldValue T 300
);

// in the original tutorial, the following is supposed to simulate the box with a temperature of 600K.
// Do I even need this? I don't think so.
regions
(
    // boxToFace
    // {
    //     box (4.5 -1000 4.5) (5.5 1e-5 5.5);

    //     fieldValues
    //     (
    //         volScalarFieldValue T 600
    //     );
    // }
);


// ************************************************************************* //
