/*--------------------------------*- C++ -*----------------------------------*\
| =========                 |                                                 |
| \\      /  F ield         | OpenFOAM: The Open Source CFD Toolbox           |
|  \\    /   O peration     | Version:  v2306                                 |
|   \\  /    A nd           | Website:  www.openfoam.com                      |
|    \\/     M anipulation  |                                                 |
\*---------------------------------------------------------------------------*/
FoamFile
{
    version     2.0;
    format      ascii;
    class       dictionary;
    object      fvSchemes;
}
// * * * * * * * * * * * * * * * * * * * * * * * * * * * * * * * * * * * * * //

ddtSchemes
{
    default         Euler; // most stable; consider CrankNicolson with 0.9
}

gradSchemes
{
    default         Gauss linear;
}

divSchemes
{
    default         none;

    div(phi,U)      Gauss limitedLinearV 1.0; // upwind or linear refers to the interpolation scheme (changing from Gauss upwind to Gauss limitedLinearV)
    div(phi,T)      Gauss limitedLinear 1.0;

    turbulence      Gauss upwind;
    div(phi,k)      $turbulence;
    div(phi,epsilon) $turbulence;
    div(phi,R)      $turbulence;
    div(R)          Gauss linear;

    div((nuEff*dev2(T(grad(U))))) Gauss linear;
}

laplacianSchemes
{
    default         Gauss linear uncorrected; // see snGradSchemes
}

interpolationSchemes
{
    default         linear;
}

snGradSchemes
{
    default         corrected; // currently, corrected should be used (max non-ortho ~ 33)
}


// ************************************************************************* //
