/*--------------------------------*- C++ -*----------------------------------*\
| =========                 |                                                 |
| \\      /  F ield         | OpenFOAM: The Open Source CFD Toolbox           |
|  \\    /   O peration     | Version:  2306                                  |
|   \\  /    A nd           | Website:  www.openfoam.com                      |
|    \\/     M anipulation  |                                                 |
\*---------------------------------------------------------------------------*/
FoamFile
{
    version     2.0;
    format      ascii;
    arch        "LSB;label=32;scalar=64";
    class       scalarListList;
    location    "constant/interior";
    object      F;
}
// * * * * * * * * * * * * * * * * * * * * * * * * * * * * * * * * * * * * * //


258
(

229
(
0.004005371
0.004004985
0.004003829
0.004001903
0.00399921
0.003995751
0.003991531
0.003986553
0.003980822
0.003974344
0.003967124
0.003959169
0.003950488
0.003941087
0.003930976
0.003920164
0.003908662
0.003896479
0.003883626
0.003870116
0.0003319588
0.004235825
0.0008746035
0.004268825
0.001267565
0.004301227
0.001546237
0.004332987
0.001738059
0.004364061
0.00186415
0.004394403
0.001940698
0.004423967
0.001980075
0.004452706
0.00199173
0.004480575
0.001982866
0.004507526
0.00195898
0.00453351
0.001924257
0.00455848
0.001881888
0.004582389
0.001834299
0.004605187
0.001783332
0.004626829
0.001730382
0.004647265
0.001676499
0.004666451
0.001622472
0.004684338
0.001568883
0.004700881
0.001516162
0.00293355
0.003013785
0.00308818
0.003156479
0.003218779
0.003275568
0.001039525
0.001027917
0.001016563
0.001005343
0.000994257
0.0009834125
0.004716037
0.0008857598
0.004781058
0.0008470451
0.00478692
0.0008107126
0.004791163
0.0007765817
0.004793758
0.0007444872
0.004794679
0.0007142777
0.004793901
0.0006858149
0.004791402
0.0006589719
0.004787162
0.0006336328
0.004781166
0.000609691
0.004773398
0.000587049
0.00476385
0.0005656171
0.004752511
0.0005453131
0.004739378
0.0005260611
0.00472445
0.0005077917
0.004707726
0.0004904405
0.004689213
0.0004739484
0.004668918
0.0004582608
0.004646852
0.0004433272
0.00462303
0.000429101
0.002022207
0.002032231
0.002041143
0.002049255
0.002056459
0.002062779
0.001372492
0.001361839
0.001351246
0.001340715
0.00133033
0.001319906
0.004597469
0.0001792981
0.00344224
0.0001750475
0.003424211
0.0001709458
0.003405461
0.0001669861
0.003386002
0.000163162
0.003365846
0.0001594674
0.003345005
0.0001558965
0.003323494
0.0001524438
0.003301325
0.0001491043
0.003278514
0.0001458731
0.003255076
0.0001427454
0.003231026
0.000139717
0.003206382
0.0001367838
0.003181159
0.0001339417
0.003155375
0.0001311871
0.003129049
0.0001285164
0.003102198
0.0001259262
0.003074842
0.0001234134
0.003046999
0.0001209749
0.003018688
0.0001186078
0.001233293
0.001874495
0.002793306
0.004040571
0.005596119
0.007293324
0.00877639
0.00959237
0.009439999
0.008382714
0.006797727
0.005122781
0.00365375
0.002505876
0.001673156
0.001097347
0.002989931
0.001200675
0.00446
0.009177927
0.01535299
0.02251502
0.02964991
0.03545445
0.03888021
0.03958292
0.03794264
0.03473462
0.03075269
0.0266019
0.02265476
0.01909796
0.01599671
0.01334671
0.01111056
0.009237948
0.007676805
0.006378632
0.00530053
0.004405665
0.003662952
0.003046399
0.002534389
0.002109062
0.001755562
0.001461651
0.001217208
0.001013814
0.0008445406
0.0007036168
0.000586285
0.0004885607
0.0004071519
0.000339339
0.0002828352
0.0002357479
0.0001965139
0.003937142
0.003943442
0.003949016
0.003953857
0.003957962
0.003961327
0.003963948
0.003965823
0.00396695
)


229
(
0.004005371
0.004004985
0.004003829
0.004001903
0.00399921
0.003995751
0.003991531
0.003986553
0.003980822
0.003974344
0.003967124
0.003959169
0.003950488
0.003941087
0.003930976
0.003920164
0.003908662
0.003896479
0.003883626
0.003870116
0.004235825
0.0003319588
0.004268825
0.0008746035
0.004301227
0.001267565
0.004332987
0.001546237
0.004364061
0.001738059
0.004394403
0.00186415
0.004423967
0.001940698
0.004452706
0.001980075
0.004480575
0.00199173
0.004507526
0.001982866
0.00453351
0.00195898
0.00455848
0.001924257
0.004582389
0.001881888
0.004605187
0.001834299
0.004626829
0.001783332
0.004647265
0.001730382
0.004666451
0.001676499
0.004684338
0.001622472
0.004700881
0.001568883
0.004716037
0.0009834125
0.000994257
0.001005343
0.001016563
0.001027917
0.001039525
0.003275568
0.003218779
0.003156479
0.00308818
0.003013785
0.00293355
0.001516162
0.004781058
0.0008857598
0.00478692
0.0008470451
0.004791163
0.0008107126
0.004793758
0.0007765817
0.004794679
0.0007444872
0.004793901
0.0007142777
0.004791402
0.0006858149
0.004787162
0.0006589719
0.004781166
0.0006336328
0.004773398
0.000609691
0.00476385
0.000587049
0.004752511
0.0005656171
0.004739378
0.0005453131
0.00472445
0.0005260611
0.004707726
0.0005077917
0.004689213
0.0004904405
0.004668918
0.0004739484
0.004646852
0.0004582608
0.00462303
0.0004433272
0.004597469
0.001319906
0.00133033
0.001340715
0.001351246
0.001361839
0.001372492
0.002062779
0.002056459
0.002049255
0.002041143
0.002032231
0.002022207
0.000429101
0.00344224
0.0001792981
0.003424211
0.0001750475
0.003405461
0.0001709458
0.003386002
0.0001669861
0.003365846
0.000163162
0.003345005
0.0001594674
0.003323494
0.0001558965
0.003301325
0.0001524438
0.003278514
0.0001491043
0.003255076
0.0001458731
0.003231026
0.0001427454
0.003206382
0.000139717
0.003181159
0.0001367838
0.003155375
0.0001339417
0.003129049
0.0001311871
0.003102198
0.0001285164
0.003074842
0.0001259262
0.003046999
0.0001234134
0.003018688
0.0001209749
0.002989931
0.001097347
0.001673156
0.002505876
0.00365375
0.005122781
0.006797727
0.008382714
0.009439999
0.00959237
0.00877639
0.007293324
0.005596119
0.004040571
0.002793306
0.001874495
0.001233293
0.0001186078
0.003937142
0.0001965139
0.0002357479
0.0002828352
0.000339339
0.0004071519
0.0004885607
0.000586285
0.0007036168
0.0008445406
0.001013814
0.001217208
0.001461651
0.001755562
0.002109062
0.002534389
0.003046399
0.003662952
0.004405665
0.00530053
0.006378632
0.007676805
0.009237948
0.01111056
0.01334671
0.01599671
0.01909796
0.02265476
0.0266019
0.03075269
0.03473462
0.03794264
0.03958292
0.03888021
0.03545445
0.02964991
0.02251502
0.01535299
0.009177927
0.00446
0.001200675
0.003943442
0.003949016
0.003953857
0.003957962
0.003961327
0.003963948
0.003965823
0.00396695
)


229
(
0.004004985
0.004005371
0.004004985
0.004003829
0.004001903
0.00399921
0.003995751
0.003991531
0.003986553
0.003980822
0.003974344
0.003967124
0.003959169
0.003950488
0.003941087
0.003930976
0.003920164
0.003908662
0.003896479
0.003883626
0.0003669082
0.004228188
0.0009601239
0.004262068
0.00138163
0.004295379
0.001674001
0.004328079
0.001869751
0.004360121
0.001993534
0.00439146
0.002063963
0.004422051
0.002095051
0.004451846
0.00209734
0.004480797
0.002078751
0.004508856
0.002045236
0.004535975
0.002001261
0.004562106
0.00195018
0.004587199
0.0018945
0.004611205
0.001836095
0.004634075
0.001776356
0.004655762
0.001716314
0.004676215
0.001656719
0.004695389
0.001598115
0.004713234
0.001540886
0.003057328
0.003138197
0.003212793
0.00328087
0.003342551
0.003398364
0.001022132
0.001010608
0.0009993385
0.0009882051
0.0009772068
0.00096645
0.004729706
0.0008593584
0.004800307
0.0008203845
0.004807544
0.0007839174
0.004813163
0.0007497559
0.004817131
0.0007177174
0.00481942
0.0006876357
0.004820002
0.0006593602
0.004818853
0.0006327535
0.004815952
0.0006076906
0.004811279
0.0005840575
0.004804817
0.0005617502
0.004796553
0.0005406738
0.004786478
0.0005207412
0.004774583
0.000501873
0.004760864
0.000483996
0.00474532
0.0004670435
0.004727955
0.0004509538
0.004708772
0.0004356702
0.004687782
0.0004211408
0.004664997
0.0004073174
0.002066666
0.002076146
0.002084485
0.002092001
0.002098585
0.002104265
0.001370123
0.001359278
0.001348499
0.001337787
0.001327228
0.001316635
0.004640432
0.000157128
0.0034777
0.0001533303
0.003460175
0.0001496684
0.003441907
0.0001461358
0.003422908
0.0001427266
0.003403189
0.000139435
0.003382763
0.0001362557
0.003361642
0.0001331838
0.003339839
0.0001302144
0.00331737
0.0001273429
0.003294249
0.0001245653
0.003270492
0.0001218774
0.003246116
0.0001192754
0.003221136
0.0001167557
0.00319557
0.0001143149
0.003169437
0.0001119497
0.003142754
0.000109657
0.00311554
0.0001074339
0.003087815
0.0001052777
0.003059598
0.0001031856
0.001252368
0.001903073
0.002834969
0.004098901
0.005673161
0.007387304
0.008880025
0.009694104
0.009528656
0.008452158
0.006847782
0.005156873
0.003676188
0.002520373
0.001682434
0.001103258
0.003030909
0.0009813124
0.003656567
0.007581067
0.0128511
0.01922694
0.02600242
0.03208981
0.03639607
0.03828462
0.03778554
0.03544624
0.03199912
0.02809723
0.02419887
0.02057068
0.01733677
0.01453064
0.01213683
0.01011647
0.008422574
0.007008147
0.005829881
0.004849624
0.004034625
0.003357171
0.002794013
0.002325829
0.00193647
0.001612588
0.001343115
0.001118825
0.0009321155
0.0007766445
0.0006471799
0.0005393361
0.0004494877
0.0003746381
0.0003122665
0.0002602864
0.0002169733
0.003930049
0.003937078
0.003943385
0.003948966
0.003953814
0.003957927
0.003961298
0.003963926
0.003965808
)


229
(
0.004004985
0.004005371
0.004004985
0.004003829
0.004001903
0.00399921
0.003995751
0.003991531
0.003986553
0.003980822
0.003974344
0.003967124
0.003959169
0.003950488
0.003941087
0.003930976
0.003920164
0.003908662
0.003896479
0.003883626
0.004228188
0.0003669082
0.004262068
0.0009601239
0.004295379
0.00138163
0.004328079
0.001674001
0.004360121
0.001869751
0.00439146
0.001993534
0.004422051
0.002063963
0.004451846
0.002095051
0.004480797
0.00209734
0.004508856
0.002078751
0.004535975
0.002045236
0.004562106
0.002001261
0.004587199
0.00195018
0.004611205
0.0018945
0.004634075
0.001836095
0.004655762
0.001776356
0.004676215
0.001716314
0.004695389
0.001656719
0.004713234
0.001598115
0.004729706
0.00096645
0.0009772068
0.0009882051
0.0009993385
0.001010608
0.001022132
0.003398364
0.003342551
0.00328087
0.003212793
0.003138197
0.003057328
0.001540886
0.004800307
0.0008593584
0.004807544
0.0008203845
0.004813163
0.0007839174
0.004817131
0.0007497559
0.00481942
0.0007177174
0.004820002
0.0006876357
0.004818853
0.0006593602
0.004815952
0.0006327535
0.004811279
0.0006076906
0.004804817
0.0005840575
0.004796553
0.0005617502
0.004786478
0.0005406738
0.004774583
0.0005207412
0.004760864
0.000501873
0.00474532
0.000483996
0.004727955
0.0004670435
0.004708772
0.0004509538
0.004687782
0.0004356702
0.004664997
0.0004211408
0.004640432
0.001316635
0.001327228
0.001337787
0.001348499
0.001359278
0.001370123
0.002104265
0.002098585
0.002092001
0.002084485
0.002076146
0.002066666
0.0004073174
0.0034777
0.000157128
0.003460175
0.0001533303
0.003441907
0.0001496684
0.003422908
0.0001461358
0.003403189
0.0001427266
0.003382763
0.000139435
0.003361642
0.0001362557
0.003339839
0.0001331838
0.00331737
0.0001302144
0.003294249
0.0001273429
0.003270492
0.0001245653
0.003246116
0.0001218774
0.003221136
0.0001192754
0.00319557
0.0001167557
0.003169437
0.0001143149
0.003142754
0.0001119497
0.00311554
0.000109657
0.003087815
0.0001074339
0.003059598
0.0001052777
0.003030909
0.001103258
0.001682434
0.002520373
0.003676188
0.005156873
0.006847782
0.008452158
0.009528656
0.009694104
0.008880025
0.007387304
0.005673161
0.004098901
0.002834969
0.001903073
0.001252368
0.0001031856
0.003930049
0.0002169733
0.0002602864
0.0003122665
0.0003746381
0.0004494877
0.0005393361
0.0006471799
0.0007766445
0.0009321155
0.001118825
0.001343115
0.001612588
0.00193647
0.002325829
0.002794013
0.003357171
0.004034625
0.004849624
0.005829881
0.007008147
0.008422574
0.01011647
0.01213683
0.01453064
0.01733677
0.02057068
0.02419887
0.02809723
0.03199912
0.03544624
0.03778554
0.03828462
0.03639607
0.03208981
0.02600242
0.01922694
0.0128511
0.007581067
0.003656567
0.0009813124
0.003937078
0.003943385
0.003948966
0.003953814
0.003957927
0.003961298
0.003963926
0.003965808
)


229
(
0.004003829
0.004004985
0.004005371
0.004004985
0.004003829
0.004001903
0.00399921
0.003995751
0.003991531
0.003986553
0.003980822
0.003974344
0.003967124
0.003959169
0.003950488
0.003941087
0.003930976
0.003920164
0.003908662
0.003896479
0.0004076812
0.004219674
0.001058782
0.004254421
0.001511633
0.004288629
0.00181789
0.004322256
0.002016356
0.004355256
0.002135959
0.004387584
0.002198174
0.004419192
0.002218903
0.004450033
0.002209909
0.00448006
0.002179888
0.004509223
0.002135264
0.004537474
0.00208078
0.004564762
0.002019932
0.004591037
0.001955289
0.004616251
0.001888732
0.004640353
0.001821628
0.004663292
0.001754962
0.004685019
0.001689433
0.004705486
0.001625528
0.004724642
0.001563574
0.003188232
0.003269508
0.003344045
0.003411612
0.00347236
0.003526864
0.001004151
0.0009927235
0.0009815496
0.0009705139
0.0009596147
0.0009489566
0.00474244
0.0008268391
0.004818619
0.0007879368
0.004827252
0.0007516465
0.004834268
0.0007177472
0.004839634
0.0006860396
0.004843316
0.0006563439
0.004845287
0.0006284979
0.004845519
0.0006023547
0.004843987
0.0005777813
0.00484067
0.0005546571
0.004835549
0.0005328726
0.004828608
0.000512328
0.004819833
0.0004929327
0.004809215
0.0004746039
0.004796747
0.000457266
0.004782425
0.0004408499
0.00476625
0.0004252923
0.004748225
0.000410535
0.004728356
0.0003965248
0.004706653
0.0003832127
0.002112181
0.002121064
0.002128773
0.002135638
0.002141548
0.002146532
0.001367192
0.001356161
0.001345201
0.001334313
0.001323584
0.001312827
0.004683131
0.0001330826
0.003513042
0.0001298037
0.00349605
0.0001266444
0.003478294
0.0001235988
0.003459784
0.0001206617
0.003440532
0.0001178278
0.003420548
0.0001150925
0.003399846
0.0001124513
0.003378438
0.0001098998
0.003356339
0.000107434
0.003333564
0.0001050502
0.003310127
0.0001027448
0.003286045
0.0001005144
0.003261335
9.835573e-05
0.003236014
9.626578e-05
0.003210099
9.424167e-05
0.003183609
9.228067e-05
0.003156563
9.038018e-05
0.00312898
8.853774e-05
0.003100879
8.675102e-05
0.001271698
0.001932017
0.002877127
0.004157839
0.005750853
0.007481815
0.008983865
0.009795577
0.009616622
0.008520675
0.006896893
0.005190153
0.003698
0.002534418
0.001691401
0.001108962
0.003072282
0.0008169927
0.00305142
0.006362245
0.01089498
0.01655685
0.02287458
0.02898006
0.03384064
0.03666013
0.03718561
0.03571971
0.03287816
0.02931359
0.0255435
0.02190566
0.01858341
0.01565161
0.01312059
0.01096608
0.00914847
0.007623821
0.006349452
0.005286568
0.00440119
0.003664168
0.003050809
0.002540449
0.002115729
0.001762244
0.001468017
0.001223041
0.001019056
0.0008491627
0.0007076634
0.0005897778
0.0004915516
0.0004097148
0.0003415155
0.0002846748
0.0002373091
0.003922229
0.003929978
0.003937014
0.003943328
0.003948916
0.003953771
0.003957891
0.003961269
0.003963905
)


229
(
0.004003829
0.004004985
0.004005371
0.004004985
0.004003829
0.004001903
0.00399921
0.003995751
0.003991531
0.003986553
0.003980822
0.003974344
0.003967124
0.003959169
0.003950488
0.003941087
0.003930976
0.003920164
0.003908662
0.003896479
0.004219674
0.0004076812
0.004254421
0.001058782
0.004288629
0.001511633
0.004322256
0.00181789
0.004355256
0.002016356
0.004387584
0.002135959
0.004419192
0.002198174
0.004450033
0.002218903
0.00448006
0.002209909
0.004509223
0.002179888
0.004537474
0.002135264
0.004564762
0.00208078
0.004591037
0.002019932
0.004616251
0.001955289
0.004640353
0.001888732
0.004663292
0.001821628
0.004685019
0.001754962
0.004705486
0.001689433
0.004724642
0.001625528
0.00474244
0.0009489566
0.0009596147
0.0009705139
0.0009815496
0.0009927235
0.001004151
0.003526864
0.00347236
0.003411612
0.003344045
0.003269508
0.003188232
0.001563574
0.004818619
0.0008268391
0.004827252
0.0007879368
0.004834268
0.0007516465
0.004839634
0.0007177472
0.004843316
0.0006860396
0.004845287
0.0006563439
0.004845519
0.0006284979
0.004843987
0.0006023547
0.00484067
0.0005777813
0.004835549
0.0005546571
0.004828608
0.0005328726
0.004819833
0.000512328
0.004809215
0.0004929327
0.004796747
0.0004746039
0.004782425
0.000457266
0.00476625
0.0004408499
0.004748225
0.0004252923
0.004728356
0.000410535
0.004706653
0.0003965248
0.004683131
0.001312827
0.001323584
0.001334313
0.001345201
0.001356161
0.001367192
0.002146532
0.002141548
0.002135638
0.002128773
0.002121064
0.002112181
0.0003832127
0.003513042
0.0001330826
0.00349605
0.0001298037
0.003478294
0.0001266444
0.003459784
0.0001235988
0.003440532
0.0001206617
0.003420548
0.0001178278
0.003399846
0.0001150925
0.003378438
0.0001124513
0.003356339
0.0001098998
0.003333564
0.000107434
0.003310127
0.0001050502
0.003286045
0.0001027448
0.003261335
0.0001005144
0.003236014
9.835573e-05
0.003210099
9.626578e-05
0.003183609
9.424167e-05
0.003156563
9.228067e-05
0.00312898
9.038018e-05
0.003100879
8.853774e-05
0.003072282
0.001108962
0.001691401
0.002534418
0.003698
0.005190153
0.006896893
0.008520675
0.009616622
0.009795577
0.008983865
0.007481815
0.005750853
0.004157839
0.002877127
0.001932017
0.001271698
8.675102e-05
0.003922229
0.0002373091
0.0002846748
0.0003415155
0.0004097148
0.0004915516
0.0005897778
0.0007076634
0.0008491627
0.001019056
0.001223041
0.001468017
0.001762244
0.002115729
0.002540449
0.003050809
0.003664168
0.00440119
0.005286568
0.006349452
0.007623821
0.00914847
0.01096608
0.01312059
0.01565161
0.01858341
0.02190566
0.0255435
0.02931359
0.03287816
0.03571971
0.03718561
0.03666013
0.03384064
0.02898006
0.02287458
0.01655685
0.01089498
0.006362245
0.00305142
0.0008169927
0.003929978
0.003937014
0.003943328
0.003948916
0.003953771
0.003957891
0.003961269
0.003963905
)


229
(
0.004001903
0.004003829
0.004004985
0.004005371
0.004004985
0.004003829
0.004001903
0.00399921
0.003995751
0.003991531
0.003986553
0.003980822
0.003974344
0.003967124
0.003959169
0.003950488
0.003941087
0.003930976
0.003920164
0.003908662
0.0004556469
0.004210283
0.001173401
0.004245881
0.001660642
0.004280973
0.001980644
0.004315515
0.002180062
0.004349461
0.002293025
0.004382765
0.002344396
0.004415381
0.002352243
0.004447261
0.002329686
0.004478355
0.002286247
0.004508616
0.002228827
0.004537992
0.002162425
0.004566434
0.002090653
0.00459389
0.002016108
0.00462031
0.001940644
0.004645643
0.001865577
0.004669838
0.00179182
0.004692843
0.001719999
0.004714607
0.001650521
0.004735081
0.001583643
0.00332672
0.003408128
0.003482297
0.003549014
0.003608464
0.003661274
0.0009855821
0.0009742632
0.0009631971
0.0009522706
0.0009414819
0.0009309335
0.004754214
0.0007873279
0.004835963
0.0007489061
0.004846011
0.0007131739
0.004854447
0.0006798921
0.004861232
0.0006488466
0.004866334
0.0006198456
0.004869721
0.0005927169
0.004871362
0.0005673056
0.004871231
0.0005434722
0.004869303
0.0005210906
0.004865557
0.0005000471
0.004859973
0.0004802386
0.004852537
0.0004615716
0.004843235
0.000443961
0.004832059
0.0004273295
0.004819001
0.0004116067
0.00480406
0.0003967283
0.004787236
0.0003826355
0.004768533
0.0003692744
0.004747959
0.0003565957
0.002158758
0.002166982
0.002174003
0.002180157
0.002185334
0.002189564
0.001363684
0.00135247
0.001341334
0.001330277
0.001319383
0.001308467
0.004725525
0.0001070286
0.003548237
0.0001043409
0.003531808
0.000101753
0.003514593
9.926022e-05
0.003496602
9.685781e-05
0.003477845
9.454151e-05
0.003458334
9.230725e-05
0.00343808
9.01512e-05
0.003417097
8.806976e-05
0.003395397
8.605953e-05
0.003372996
8.41173e-05
0.003349908
8.224004e-05
0.00332615
8.042488e-05
0.003301737
7.866912e-05
0.003276687
7.69702e-05
0.003251017
7.532569e-05
0.003224747
7.373329e-05
0.003197893
7.219082e-05
0.003170477
7.069623e-05
0.003142517
6.924755e-05
0.001291278
0.001961314
0.002919759
0.004217356
0.005829144
0.00757678
0.009087807
0.009896667
0.009703772
0.008588149
0.006944969
0.005222552
0.003719137
0.002547978
0.001700036
0.001114444
0.003114034
0.0006907328
0.0025845
0.005412276
0.009341907
0.01437358
0.02020509
0.02616488
0.03133168
0.03484864
0.0362567
0.03562734
0.03342691
0.03026587
0.02669223
0.02310172
0.01973397
0.01670689
0.01405953
0.01178497
0.009853129
0.008224641
0.006858492
0.005715939
0.00476223
0.003967075
0.003304537
0.002752738
0.002293194
0.001910506
0.001591824
0.00132639
0.001105305
0.0009211263
0.0007676991
0.0006398561
0.0005333193
0.0004445494
0.0003705658
0.0003088998
0.0002575102
0.003913687
0.003922151
0.003929907
0.00393695
0.003943271
0.003948866
0.003953728
0.003957855
0.003961241
)


229
(
0.004001903
0.004003829
0.004004985
0.004005371
0.004004985
0.004003829
0.004001903
0.00399921
0.003995751
0.003991531
0.003986553
0.003980822
0.003974344
0.003967124
0.003959169
0.003950488
0.003941087
0.003930976
0.003920164
0.003908662
0.004210283
0.0004556469
0.004245881
0.001173401
0.004280973
0.001660642
0.004315515
0.001980644
0.004349461
0.002180062
0.004382765
0.002293025
0.004415381
0.002344396
0.004447261
0.002352243
0.004478355
0.002329686
0.004508616
0.002286247
0.004537992
0.002228827
0.004566434
0.002162425
0.00459389
0.002090653
0.00462031
0.002016108
0.004645643
0.001940644
0.004669838
0.001865577
0.004692843
0.00179182
0.004714607
0.001719999
0.004735081
0.001650521
0.004754214
0.0009309335
0.0009414819
0.0009522706
0.0009631971
0.0009742632
0.0009855821
0.003661274
0.003608464
0.003549014
0.003482297
0.003408128
0.00332672
0.001583643
0.004835963
0.0007873279
0.004846011
0.0007489061
0.004854447
0.0007131739
0.004861232
0.0006798921
0.004866334
0.0006488466
0.004869721
0.0006198456
0.004871362
0.0005927169
0.004871231
0.0005673056
0.004869303
0.0005434722
0.004865557
0.0005210906
0.004859973
0.0005000471
0.004852537
0.0004802386
0.004843235
0.0004615716
0.004832059
0.000443961
0.004819001
0.0004273295
0.00480406
0.0004116067
0.004787236
0.0003967283
0.004768533
0.0003826355
0.004747959
0.0003692744
0.004725525
0.001308467
0.001319383
0.001330277
0.001341334
0.00135247
0.001363684
0.002189564
0.002185334
0.002180157
0.002174003
0.002166982
0.002158758
0.0003565957
0.003548237
0.0001070286
0.003531808
0.0001043409
0.003514593
0.000101753
0.003496602
9.926022e-05
0.003477845
9.685781e-05
0.003458334
9.454151e-05
0.00343808
9.230725e-05
0.003417097
9.01512e-05
0.003395397
8.806976e-05
0.003372996
8.605953e-05
0.003349908
8.41173e-05
0.00332615
8.224004e-05
0.003301737
8.042488e-05
0.003276687
7.866912e-05
0.003251017
7.69702e-05
0.003224747
7.532569e-05
0.003197893
7.373329e-05
0.003170477
7.219082e-05
0.003142517
7.069623e-05
0.003114034
0.001114444
0.001700036
0.002547978
0.003719137
0.005222552
0.006944969
0.008588149
0.009703772
0.009896667
0.009087807
0.00757678
0.005829144
0.004217356
0.002919759
0.001961314
0.001291278
6.924755e-05
0.003913687
0.0002575102
0.0003088998
0.0003705658
0.0004445494
0.0005333193
0.0006398561
0.0007676991
0.0009211263
0.001105305
0.00132639
0.001591824
0.001910506
0.002293194
0.002752738
0.003304537
0.003967075
0.00476223
0.005715939
0.006858492
0.008224641
0.009853129
0.01178497
0.01405953
0.01670689
0.01973397
0.02310172
0.02669223
0.03026587
0.03342691
0.03562734
0.0362567
0.03484864
0.03133168
0.02616488
0.02020509
0.01437358
0.009341907
0.005412276
0.0025845
0.0006907328
0.003922151
0.003929907
0.00393695
0.003943271
0.003948866
0.003953728
0.003957855
0.003961241
)


229
(
0.00399921
0.004001903
0.004003829
0.004004985
0.004005371
0.004004985
0.004003829
0.004001903
0.00399921
0.003995751
0.003991531
0.003986553
0.003980822
0.003974344
0.003967124
0.003959169
0.003950488
0.003941087
0.003930976
0.003920164
0.0005126019
0.004200013
0.0013076
0.004236448
0.001832483
0.004272409
0.002165575
0.004307851
0.002363422
0.004342731
0.002466517
0.004377
0.002503735
0.004410612
0.002495624
0.00444352
0.002456796
0.004475673
0.002397632
0.004507023
0.002325498
0.004537518
0.002245613
0.004567109
0.002161657
0.004595742
0.002076207
0.004623366
0.001991054
0.00464993
0.001907418
0.00467538
0.001826112
0.004699665
0.001747657
0.004722732
0.001672364
0.004744529
0.001600394
0.003473272
0.003554481
0.003627915
0.003693383
0.003751113
0.003801788
0.0009664272
0.000955229
0.0009442827
0.0009334771
0.0009228104
0.0009123827
0.004765006
0.0007398309
0.00485231
0.0007023913
0.004863791
0.0006676808
0.004873665
0.0006354454
0.004881893
0.0006054588
0.004888439
0.0005775198
0.004893267
0.0005514488
0.004896345
0.000527085
0.004897645
0.0005042845
0.004897138
0.0004829178
0.0048948
0.0004628684
0.00489061
0.0004440314
0.00488455
0.0004263119
0.004876603
0.0004096241
0.004866758
0.0003938899
0.004855007
0.0003790389
0.004841342
0.0003650064
0.004825764
0.0003517341
0.004808273
0.0003391682
0.004788874
0.0003272599
0.002206393
0.002213896
0.002220165
0.002225546
0.002229927
0.002233342
0.001359578
0.001348188
0.001336882
0.00132566
0.001314608
0.001303538
0.004767577
7.882385e-05
0.003583251
7.680664e-05
0.003567416
7.486585e-05
0.003550773
7.299768e-05
0.003533331
7.119854e-05
0.003515101
6.946508e-05
0.003496092
6.779413e-05
0.003476317
6.618274e-05
0.003455788
6.46281e-05
0.003434518
6.312759e-05
0.003412521
6.167871e-05
0.003389811
6.027913e-05
0.003366405
5.892664e-05
0.003342319
5.761914e-05
0.003317568
5.635468e-05
0.003292172
5.513136e-05
0.003266147
5.394745e-05
0.003239514
5.280125e-05
0.003212291
5.169118e-05
0.003184497
5.061575e-05
0.001311099
0.001990953
0.002962844
0.004277417
0.005907979
0.007672117
0.009191739
0.009997243
0.00978997
0.00865446
0.006991911
0.005253999
0.003739547
0.00256102
0.001708316
0.001119689
0.003156154
0.0005916273
0.002216814
0.004658298
0.008091261
0.012574
0.01792805
0.02364697
0.02893876
0.03295273
0.03509513
0.03523785
0.03368495
0.03097267
0.02765157
0.02415959
0.02078697
0.01769443
0.01495173
0.01257156
0.01053532
0.008809669
0.007356297
0.006137209
0.005117347
0.004265592
0.003554966
0.002962517
0.002468729
0.002057266
0.001714452
0.001428806
0.001190809
0.0009924911
0.0008272512
0.0006895418
0.0005747671
0.0004791222
0.0003994014
0.0003329482
0.0002775657
0.003904433
0.003913603
0.003922073
0.003929836
0.003936885
0.003943214
0.003948815
0.003953685
0.003957819
)


229
(
0.00399921
0.004001903
0.004003829
0.004004985
0.004005371
0.004004985
0.004003829
0.004001903
0.00399921
0.003995751
0.003991531
0.003986553
0.003980822
0.003974344
0.003967124
0.003959169
0.003950488
0.003941087
0.003930976
0.003920164
0.004200013
0.0005126019
0.004236448
0.0013076
0.004272409
0.001832483
0.004307851
0.002165575
0.004342731
0.002363422
0.004377
0.002466517
0.004410612
0.002503735
0.00444352
0.002495624
0.004475673
0.002456796
0.004507023
0.002397632
0.004537518
0.002325498
0.004567109
0.002245613
0.004595742
0.002161657
0.004623366
0.002076207
0.00464993
0.001991054
0.00467538
0.001907418
0.004699665
0.001826112
0.004722732
0.001747657
0.004744529
0.001672364
0.004765006
0.0009123827
0.0009228104
0.0009334771
0.0009442827
0.000955229
0.0009664272
0.003801788
0.003751113
0.003693383
0.003627915
0.003554481
0.003473272
0.001600394
0.00485231
0.0007398309
0.004863791
0.0007023913
0.004873665
0.0006676808
0.004881893
0.0006354454
0.004888439
0.0006054588
0.004893267
0.0005775198
0.004896345
0.0005514488
0.004897645
0.000527085
0.004897138
0.0005042845
0.0048948
0.0004829178
0.00489061
0.0004628684
0.00488455
0.0004440314
0.004876603
0.0004263119
0.004866758
0.0004096241
0.004855007
0.0003938899
0.004841342
0.0003790389
0.004825764
0.0003650064
0.004808273
0.0003517341
0.004788874
0.0003391682
0.004767577
0.001303538
0.001314608
0.00132566
0.001336882
0.001348188
0.001359578
0.002233342
0.002229927
0.002225546
0.002220165
0.002213896
0.002206393
0.0003272599
0.003583251
7.882385e-05
0.003567416
7.680664e-05
0.003550773
7.486585e-05
0.003533331
7.299768e-05
0.003515101
7.119854e-05
0.003496092
6.946508e-05
0.003476317
6.779413e-05
0.003455788
6.618274e-05
0.003434518
6.46281e-05
0.003412521
6.312759e-05
0.003389811
6.167871e-05
0.003366405
6.027913e-05
0.003342319
5.892664e-05
0.003317568
5.761914e-05
0.003292172
5.635468e-05
0.003266147
5.513136e-05
0.003239514
5.394745e-05
0.003212291
5.280125e-05
0.003184497
5.169118e-05
0.003156154
0.001119689
0.001708316
0.00256102
0.003739547
0.005253999
0.006991911
0.00865446
0.00978997
0.009997243
0.009191739
0.007672117
0.005907979
0.004277417
0.002962844
0.001990953
0.001311099
5.061575e-05
0.003904433
0.0002775657
0.0003329482
0.0003994014
0.0004791222
0.0005747671
0.0006895418
0.0008272512
0.0009924911
0.001190809
0.001428806
0.001714452
0.002057266
0.002468729
0.002962517
0.003554966
0.004265592
0.005117347
0.006137209
0.007356297
0.008809669
0.01053532
0.01257156
0.01495173
0.01769443
0.02078697
0.02415959
0.02765157
0.03097267
0.03368495
0.03523785
0.03509513
0.03295273
0.02893876
0.02364697
0.01792805
0.012574
0.008091261
0.004658298
0.002216814
0.0005916273
0.003913603
0.003922073
0.003929836
0.003936885
0.003943214
0.003948815
0.003953685
0.003957819
)


229
(
0.003995751
0.00399921
0.004001903
0.004003829
0.004004985
0.004005371
0.004004985
0.004003829
0.004001903
0.00399921
0.003995751
0.003991531
0.003986553
0.003980822
0.003974344
0.003967124
0.003959169
0.003950488
0.003941087
0.003930976
0.0005809408
0.004188864
0.001466081
0.00422612
0.002031973
0.004262934
0.002376707
0.004299263
0.00256941
0.004335061
0.002658396
0.004370282
0.002677296
0.004404879
0.002649478
0.004438803
0.002591164
0.004472006
0.002513607
0.004504435
0.002424594
0.004536042
0.002329498
0.004566774
0.002232001
0.004596579
0.0021346
0.004625404
0.00203896
0.004653196
0.001946161
0.004679902
0.001856874
0.004705467
0.001771483
0.00472984
0.001690173
0.004752965
0.001612992
0.003628387
0.003709001
0.003781266
0.003845021
0.003900541
0.003948573
0.0009466883
0.0009356232
0.0009248088
0.000914136
0.0009036027
0.0008933071
0.004774791
0.0006832181
0.004867629
0.0006473722
0.00488056
0.0006142444
0.004891892
0.0005835701
0.004901583
0.0005551156
0.004909595
0.0005286741
0.004915889
0.0005040619
0.004920432
0.0004811156
0.004923191
0.0004596896
0.004924136
0.0004396535
0.00492324
0.0004208907
0.004920479
0.0004032962
0.004915831
0.0003867757
0.004909278
0.0003712441
0.004900805
0.0003566244
0.0048904
0.0003428472
0.004878056
0.0003298493
0.004863768
0.0003175732
0.004847534
0.0003059668
0.004829358
0.0002949825
0.002255083
0.002261796
0.002267245
0.002271785
0.002275305
0.002277838